<routes>

        <vType id="typeWE" accel="0.8" decel="4.5" sigma="0.5" length="5" minGap="2.5" maxSpeed="19.444" guiShape="passenger"/>

        <vType id="typeNS" accel="0.8" decel="4.5" sigma="0.5" length="7" minGap="3" maxSpeed="25" guiShape="bus"/>



        <route id="WE" edges="51o 1i 2o 52i" />
        <route id="WEN" edges="51o 1i 4o 54i" />
        <route id="WES" edges="51o 1i 3o 53i"/>
        
        <route id="EW" edges="52o 2i 1o 51i" />
        <route id="EWS" edges="52o 2i 3o 53i" />
        
        <route id="NS" edges="54o 4i 3o 53i" />
        <route id="NSE" edges="54o 4i 2o 52i" />
        
        <route id="SN" edges="53o 3i 4o 54i" />
        <route id="SNW" edges="53o 3i 1o 51i" />
    <vehicle id="WE_0" type="typeWE" route="WE" depart="0" departLane="random"/>
    <vehicle id="NS_1" type="typeWE" route="NS" depart="0" departLane="random" color="1,0,0"/>
    <vehicle id="SNW_2" type="typeWE" route="SNW" depart="4" departLane="random" color="1,0,0"/>
    <vehicle id="EW_3" type="typeWE" route="EW" depart="6" departLane="random"/>
    <vehicle id="NS_4" type="typeWE" route="NS" depart="6" departLane="random" color="1,0,0"/>
    <vehicle id="NSE_5" type="typeWE" route="NSE" depart="7" departLane="random" color="1,0,0"/>
    <vehicle id="NS_6" type="typeWE" route="NS" depart="9" departLane="random" color="1,0,0"/>
    <vehicle id="EW_7" type="typeWE" route="EW" depart="13" departLane="random"/>
    <vehicle id="SN_8" type="typeWE" route="SN" depart="13" departLane="random" color="1,0,0"/>
    <vehicle id="WE_9" type="typeWE" route="WE" depart="15" departLane="random"/>
    <vehicle id="SN_10" type="typeWE" route="SN" depart="16" departLane="random" color="1,0,0"/>
    <vehicle id="EW_11" type="typeWE" route="EW" depart="17" departLane="random"/>
    <vehicle id="EWS_12" type="typeWE" route="EWS" depart="18" departLane="random"/>
    <vehicle id="SNW_13" type="typeWE" route="SNW" depart="18" departLane="random" color="1,0,0"/>
    <vehicle id="NS_14" type="typeWE" route="NS" depart="23" departLane="random" color="1,0,0"/>
    <vehicle id="SNW_15" type="typeWE" route="SNW" depart="24" departLane="random" color="1,0,0"/>
    <vehicle id="WE_16" type="typeWE" route="WE" depart="26" departLane="random"/>
    <vehicle id="EW_17" type="typeWE" route="EW" depart="27" departLane="random"/>
    <vehicle id="SN_18" type="typeWE" route="SN" depart="27" departLane="random" color="1,0,0"/>
    <vehicle id="EWS_19" type="typeWE" route="EWS" depart="29" departLane="random"/>
    <vehicle id="SN_20" type="typeWE" route="SN" depart="29" departLane="random" color="1,0,0"/>
    <vehicle id="EW_21" type="typeWE" route="EW" depart="32" departLane="random"/>
    <vehicle id="WE_22" type="typeWE" route="WE" depart="33" departLane="random"/>
    <vehicle id="EW_23" type="typeWE" route="EW" depart="33" departLane="random"/>
    <vehicle id="EW_24" type="typeWE" route="EW" depart="34" departLane="random"/>
    <vehicle id="EW_25" type="typeWE" route="EW" depart="35" departLane="random"/>
    <vehicle id="EW_26" type="typeWE" route="EW" depart="37" departLane="random"/>
    <vehicle id="NS_27" type="typeWE" route="NS" depart="38" departLane="random" color="1,0,0"/>
    <vehicle id="EWS_28" type="typeWE" route="EWS" depart="42" departLane="random"/>
    <vehicle id="NS_29" type="typeWE" route="NS" depart="43" departLane="random" color="1,0,0"/>
    <vehicle id="SN_30" type="typeWE" route="SN" depart="43" departLane="random" color="1,0,0"/>
    <vehicle id="WE_31" type="typeWE" route="WE" depart="44" departLane="random"/>
    <vehicle id="NS_32" type="typeWE" route="NS" depart="45" departLane="random" color="1,0,0"/>
    <vehicle id="WE_33" type="typeWE" route="WE" depart="48" departLane="random"/>
    <vehicle id="EW_34" type="typeWE" route="EW" depart="48" departLane="random"/>
    <vehicle id="NS_35" type="typeWE" route="NS" depart="48" departLane="random" color="1,0,0"/>
    <vehicle id="NS_36" type="typeWE" route="NS" depart="53" departLane="random" color="1,0,0"/>
    <vehicle id="WE_37" type="typeWE" route="WE" depart="54" departLane="random"/>
    <vehicle id="EW_38" type="typeWE" route="EW" depart="54" departLane="random"/>
    <vehicle id="NS_39" type="typeWE" route="NS" depart="54" departLane="random" color="1,0,0"/>
    <vehicle id="NSE_40" type="typeWE" route="NSE" depart="55" departLane="random" color="1,0,0"/>
    <vehicle id="EW_41" type="typeWE" route="EW" depart="56" departLane="random"/>
    <vehicle id="EW_42" type="typeWE" route="EW" depart="57" departLane="random"/>
    <vehicle id="SN_43" type="typeWE" route="SN" depart="57" departLane="random" color="1,0,0"/>
    <vehicle id="EWS_44" type="typeWE" route="EWS" depart="60" departLane="random"/>
    <vehicle id="SN_45" type="typeWE" route="SN" depart="62" departLane="random" color="1,0,0"/>
    <vehicle id="SNW_46" type="typeWE" route="SNW" depart="62" departLane="random" color="1,0,0"/>
    <vehicle id="SN_47" type="typeWE" route="SN" depart="67" departLane="random" color="1,0,0"/>
    <vehicle id="WE_48" type="typeWE" route="WE" depart="68" departLane="random"/>
    <vehicle id="WEN_49" type="typeWE" route="WEN" depart="68" departLane="random"/>
    <vehicle id="EW_50" type="typeWE" route="EW" depart="73" departLane="random"/>
    <vehicle id="SN_51" type="typeWE" route="SN" depart="74" departLane="random" color="1,0,0"/>
    <vehicle id="NS_52" type="typeWE" route="NS" depart="75" departLane="random" color="1,0,0"/>
    <vehicle id="WE_53" type="typeWE" route="WE" depart="77" departLane="random"/>
    <vehicle id="EWS_54" type="typeWE" route="EWS" depart="78" departLane="random"/>
    <vehicle id="NS_55" type="typeWE" route="NS" depart="78" departLane="random" color="1,0,0"/>
    <vehicle id="WE_56" type="typeWE" route="WE" depart="81" departLane="random"/>
    <vehicle id="EW_57" type="typeWE" route="EW" depart="81" departLane="random"/>
    <vehicle id="EWS_58" type="typeWE" route="EWS" depart="82" departLane="random"/>
    <vehicle id="WEN_59" type="typeWE" route="WEN" depart="86" departLane="random"/>
    <vehicle id="EW_60" type="typeWE" route="EW" depart="86" departLane="random"/>
    <vehicle id="WE_61" type="typeWE" route="WE" depart="92" departLane="random"/>
    <vehicle id="NSE_62" type="typeWE" route="NSE" depart="92" departLane="random" color="1,0,0"/>
    <vehicle id="SNW_63" type="typeWE" route="SNW" depart="92" departLane="random" color="1,0,0"/>
    <vehicle id="WE_64" type="typeWE" route="WE" depart="95" departLane="random"/>
    <vehicle id="EWS_65" type="typeWE" route="EWS" depart="95" departLane="random"/>
    <vehicle id="NS_66" type="typeWE" route="NS" depart="95" departLane="random" color="1,0,0"/>
    <vehicle id="WE_67" type="typeWE" route="WE" depart="98" departLane="random"/>
    <vehicle id="WEN_68" type="typeWE" route="WEN" depart="99" departLane="random"/>
    <vehicle id="EW_69" type="typeWE" route="EW" depart="99" departLane="random"/>
    <vehicle id="SN_70" type="typeWE" route="SN" depart="99" departLane="random" color="1,0,0"/>
    <vehicle id="SN_71" type="typeWE" route="SN" depart="100" departLane="random" color="1,0,0"/>
    <vehicle id="SNW_72" type="typeWE" route="SNW" depart="100" departLane="random" color="1,0,0"/>
    <vehicle id="SN_73" type="typeWE" route="SN" depart="101" departLane="random" color="1,0,0"/>
    <vehicle id="WE_74" type="typeWE" route="WE" depart="102" departLane="random"/>
    <vehicle id="WE_75" type="typeWE" route="WE" depart="103" departLane="random"/>
    <vehicle id="NS_76" type="typeWE" route="NS" depart="103" departLane="random" color="1,0,0"/>
    <vehicle id="EW_77" type="typeWE" route="EW" depart="104" departLane="random"/>
    <vehicle id="WE_78" type="typeWE" route="WE" depart="105" departLane="random"/>
    <vehicle id="WE_79" type="typeWE" route="WE" depart="107" departLane="random"/>
    <vehicle id="WE_80" type="typeWE" route="WE" depart="108" departLane="random"/>
    <vehicle id="NS_81" type="typeWE" route="NS" depart="109" departLane="random" color="1,0,0"/>
    <vehicle id="NS_82" type="typeWE" route="NS" depart="114" departLane="random" color="1,0,0"/>
    <vehicle id="WE_83" type="typeWE" route="WE" depart="115" departLane="random"/>
    <vehicle id="EWS_84" type="typeWE" route="EWS" depart="117" departLane="random"/>
    <vehicle id="NS_85" type="typeWE" route="NS" depart="118" departLane="random" color="1,0,0"/>
    <vehicle id="NS_86" type="typeWE" route="NS" depart="119" departLane="random" color="1,0,0"/>
    <vehicle id="EW_87" type="typeWE" route="EW" depart="121" departLane="random"/>
    <vehicle id="SN_88" type="typeWE" route="SN" depart="122" departLane="random" color="1,0,0"/>
    <vehicle id="WEN_89" type="typeWE" route="WEN" depart="123" departLane="random"/>
    <vehicle id="EW_90" type="typeWE" route="EW" depart="124" departLane="random"/>
    <vehicle id="WE_91" type="typeWE" route="WE" depart="125" departLane="random"/>
    <vehicle id="WEN_92" type="typeWE" route="WEN" depart="128" departLane="random"/>
    <vehicle id="EW_93" type="typeWE" route="EW" depart="130" departLane="random"/>
    <vehicle id="NS_94" type="typeWE" route="NS" depart="130" departLane="random" color="1,0,0"/>
    <vehicle id="EWS_95" type="typeWE" route="EWS" depart="131" departLane="random"/>
    <vehicle id="WE_96" type="typeWE" route="WE" depart="132" departLane="random"/>
    <vehicle id="WEN_97" type="typeWE" route="WEN" depart="133" departLane="random"/>
    <vehicle id="EW_98" type="typeWE" route="EW" depart="133" departLane="random"/>
    <vehicle id="EWS_99" type="typeWE" route="EWS" depart="133" departLane="random"/>
    <vehicle id="NS_100" type="typeWE" route="NS" depart="133" departLane="random" color="1,0,0"/>
    <vehicle id="WEN_101" type="typeWE" route="WEN" depart="134" departLane="random"/>
    <vehicle id="EW_102" type="typeWE" route="EW" depart="134" departLane="random"/>
    <vehicle id="WE_103" type="typeWE" route="WE" depart="140" departLane="random"/>
    <vehicle id="WE_104" type="typeWE" route="WE" depart="142" departLane="random"/>
    <vehicle id="SN_105" type="typeWE" route="SN" depart="142" departLane="random" color="1,0,0"/>
    <vehicle id="NS_106" type="typeWE" route="NS" depart="144" departLane="random" color="1,0,0"/>
    <vehicle id="WE_107" type="typeWE" route="WE" depart="145" departLane="random"/>
    <vehicle id="SN_108" type="typeWE" route="SN" depart="149" departLane="random" color="1,0,0"/>
    <vehicle id="EW_109" type="typeWE" route="EW" depart="152" departLane="random"/>
    <vehicle id="NSE_110" type="typeWE" route="NSE" depart="154" departLane="random" color="1,0,0"/>
    <vehicle id="NS_111" type="typeWE" route="NS" depart="155" departLane="random" color="1,0,0"/>
    <vehicle id="WE_112" type="typeWE" route="WE" depart="156" departLane="random"/>
    <vehicle id="EW_113" type="typeWE" route="EW" depart="156" departLane="random"/>
    <vehicle id="NSE_114" type="typeWE" route="NSE" depart="156" departLane="random" color="1,0,0"/>
    <vehicle id="WEN_115" type="typeWE" route="WEN" depart="157" departLane="random"/>
    <vehicle id="EW_116" type="typeWE" route="EW" depart="157" departLane="random"/>
    <vehicle id="SN_117" type="typeWE" route="SN" depart="157" departLane="random" color="1,0,0"/>
    <vehicle id="EW_118" type="typeWE" route="EW" depart="158" departLane="random"/>
    <vehicle id="NS_119" type="typeWE" route="NS" depart="158" departLane="random" color="1,0,0"/>
    <vehicle id="SN_120" type="typeWE" route="SN" depart="158" departLane="random" color="1,0,0"/>
    <vehicle id="EWS_121" type="typeWE" route="EWS" depart="160" departLane="random"/>
    <vehicle id="SNW_122" type="typeWE" route="SNW" depart="161" departLane="random" color="1,0,0"/>
    <vehicle id="WE_123" type="typeWE" route="WE" depart="163" departLane="random"/>
    <vehicle id="WE_124" type="typeWE" route="WE" depart="164" departLane="random"/>
    <vehicle id="WE_125" type="typeWE" route="WE" depart="165" departLane="random"/>
    <vehicle id="NS_126" type="typeWE" route="NS" depart="165" departLane="random" color="1,0,0"/>
    <vehicle id="EW_127" type="typeWE" route="EW" depart="167" departLane="random"/>
    <vehicle id="SN_128" type="typeWE" route="SN" depart="167" departLane="random" color="1,0,0"/>
    <vehicle id="WE_129" type="typeWE" route="WE" depart="169" departLane="random"/>
    <vehicle id="SN_130" type="typeWE" route="SN" depart="170" departLane="random" color="1,0,0"/>
    <vehicle id="WE_131" type="typeWE" route="WE" depart="171" departLane="random"/>
    <vehicle id="NS_132" type="typeWE" route="NS" depart="176" departLane="random" color="1,0,0"/>
    <vehicle id="SNW_133" type="typeWE" route="SNW" depart="176" departLane="random" color="1,0,0"/>
    <vehicle id="WE_134" type="typeWE" route="WE" depart="178" departLane="random"/>
    <vehicle id="WE_135" type="typeWE" route="WE" depart="182" departLane="random"/>
    <vehicle id="EW_136" type="typeWE" route="EW" depart="183" departLane="random"/>
    <vehicle id="SNW_137" type="typeWE" route="SNW" depart="183" departLane="random" color="1,0,0"/>
    <vehicle id="WE_138" type="typeWE" route="WE" depart="186" departLane="random"/>
    <vehicle id="EWS_139" type="typeWE" route="EWS" depart="186" departLane="random"/>
    <vehicle id="NS_140" type="typeWE" route="NS" depart="187" departLane="random" color="1,0,0"/>
    <vehicle id="WE_141" type="typeWE" route="WE" depart="188" departLane="random"/>
    <vehicle id="WE_142" type="typeWE" route="WE" depart="190" departLane="random"/>
    <vehicle id="WEN_143" type="typeWE" route="WEN" depart="190" departLane="random"/>
    <vehicle id="NS_144" type="typeWE" route="NS" depart="191" departLane="random" color="1,0,0"/>
    <vehicle id="EW_145" type="typeWE" route="EW" depart="192" departLane="random"/>
    <vehicle id="SN_146" type="typeWE" route="SN" depart="193" departLane="random" color="1,0,0"/>
    <vehicle id="EW_147" type="typeWE" route="EW" depart="196" departLane="random"/>
    <vehicle id="WE_148" type="typeWE" route="WE" depart="199" departLane="random"/>
    <vehicle id="EW_149" type="typeWE" route="EW" depart="200" departLane="random"/>
    <vehicle id="EWS_150" type="typeWE" route="EWS" depart="200" departLane="random"/>
    <vehicle id="NS_151" type="typeWE" route="NS" depart="200" departLane="random" color="1,0,0"/>
    <vehicle id="SN_152" type="typeWE" route="SN" depart="201" departLane="random" color="1,0,0"/>
    <vehicle id="WEN_153" type="typeWE" route="WEN" depart="202" departLane="random"/>
    <vehicle id="EW_154" type="typeWE" route="EW" depart="203" departLane="random"/>
    <vehicle id="WE_155" type="typeWE" route="WE" depart="207" departLane="random"/>
    <vehicle id="EW_156" type="typeWE" route="EW" depart="207" departLane="random"/>
    <vehicle id="WE_157" type="typeWE" route="WE" depart="210" departLane="random"/>
    <vehicle id="NS_158" type="typeWE" route="NS" depart="213" departLane="random" color="1,0,0"/>
    <vehicle id="SNW_159" type="typeWE" route="SNW" depart="214" departLane="random" color="1,0,0"/>
    <vehicle id="WE_160" type="typeWE" route="WE" depart="215" departLane="random"/>
    <vehicle id="SN_161" type="typeWE" route="SN" depart="218" departLane="random" color="1,0,0"/>
    <vehicle id="WE_162" type="typeWE" route="WE" depart="219" departLane="random"/>
    <vehicle id="EW_163" type="typeWE" route="EW" depart="219" departLane="random"/>
    <vehicle id="EW_164" type="typeWE" route="EW" depart="220" departLane="random"/>
    <vehicle id="NS_165" type="typeWE" route="NS" depart="221" departLane="random" color="1,0,0"/>
    <vehicle id="SN_166" type="typeWE" route="SN" depart="221" departLane="random" color="1,0,0"/>
    <vehicle id="EW_167" type="typeWE" route="EW" depart="223" departLane="random"/>
    <vehicle id="EWS_168" type="typeWE" route="EWS" depart="223" departLane="random"/>
    <vehicle id="NS_169" type="typeWE" route="NS" depart="224" departLane="random" color="1,0,0"/>
    <vehicle id="SNW_170" type="typeWE" route="SNW" depart="224" departLane="random" color="1,0,0"/>
    <vehicle id="SNW_171" type="typeWE" route="SNW" depart="225" departLane="random" color="1,0,0"/>
    <vehicle id="WE_172" type="typeWE" route="WE" depart="229" departLane="random"/>
    <vehicle id="EW_173" type="typeWE" route="EW" depart="229" departLane="random"/>
    <vehicle id="EW_174" type="typeWE" route="EW" depart="231" departLane="random"/>
    <vehicle id="NS_175" type="typeWE" route="NS" depart="231" departLane="random" color="1,0,0"/>
    <vehicle id="NS_176" type="typeWE" route="NS" depart="233" departLane="random" color="1,0,0"/>
    <vehicle id="WE_177" type="typeWE" route="WE" depart="235" departLane="random"/>
    <vehicle id="WE_178" type="typeWE" route="WE" depart="236" departLane="random"/>
    <vehicle id="NS_179" type="typeWE" route="NS" depart="236" departLane="random" color="1,0,0"/>
    <vehicle id="WE_180" type="typeWE" route="WE" depart="237" departLane="random"/>
    <vehicle id="WE_181" type="typeWE" route="WE" depart="239" departLane="random"/>
    <vehicle id="EW_182" type="typeWE" route="EW" depart="239" departLane="random"/>
    <vehicle id="SN_183" type="typeWE" route="SN" depart="240" departLane="random" color="1,0,0"/>
    <vehicle id="SN_184" type="typeWE" route="SN" depart="241" departLane="random" color="1,0,0"/>
    <vehicle id="EW_185" type="typeWE" route="EW" depart="242" departLane="random"/>
    <vehicle id="EWS_186" type="typeWE" route="EWS" depart="242" departLane="random"/>
    <vehicle id="WEN_187" type="typeWE" route="WEN" depart="243" departLane="random"/>
    <vehicle id="WE_188" type="typeWE" route="WE" depart="246" departLane="random"/>
    <vehicle id="WE_189" type="typeWE" route="WE" depart="252" departLane="random"/>
    <vehicle id="WE_190" type="typeWE" route="WE" depart="253" departLane="random"/>
    <vehicle id="EWS_191" type="typeWE" route="EWS" depart="253" departLane="random"/>
    <vehicle id="EW_192" type="typeWE" route="EW" depart="257" departLane="random"/>
    <vehicle id="SN_193" type="typeWE" route="SN" depart="257" departLane="random" color="1,0,0"/>
    <vehicle id="SN_194" type="typeWE" route="SN" depart="259" departLane="random" color="1,0,0"/>
    <vehicle id="WE_195" type="typeWE" route="WE" depart="260" departLane="random"/>
    <vehicle id="WEN_196" type="typeWE" route="WEN" depart="261" departLane="random"/>
    <vehicle id="EW_197" type="typeWE" route="EW" depart="261" departLane="random"/>
    <vehicle id="NS_198" type="typeWE" route="NS" depart="261" departLane="random" color="1,0,0"/>
    <vehicle id="SN_199" type="typeWE" route="SN" depart="261" departLane="random" color="1,0,0"/>
    <vehicle id="EWS_200" type="typeWE" route="EWS" depart="263" departLane="random"/>
    <vehicle id="NS_201" type="typeWE" route="NS" depart="263" departLane="random" color="1,0,0"/>
    <vehicle id="WE_202" type="typeWE" route="WE" depart="265" departLane="random"/>
    <vehicle id="EW_203" type="typeWE" route="EW" depart="267" departLane="random"/>
    <vehicle id="WEN_204" type="typeWE" route="WEN" depart="269" departLane="random"/>
    <vehicle id="NS_205" type="typeWE" route="NS" depart="269" departLane="random" color="1,0,0"/>
    <vehicle id="WE_206" type="typeWE" route="WE" depart="270" departLane="random"/>
    <vehicle id="SN_207" type="typeWE" route="SN" depart="270" departLane="random" color="1,0,0"/>
    <vehicle id="EW_208" type="typeWE" route="EW" depart="271" departLane="random"/>
    <vehicle id="EW_209" type="typeWE" route="EW" depart="272" departLane="random"/>
    <vehicle id="WE_210" type="typeWE" route="WE" depart="273" departLane="random"/>
    <vehicle id="WEN_211" type="typeWE" route="WEN" depart="274" departLane="random"/>
    <vehicle id="EW_212" type="typeWE" route="EW" depart="276" departLane="random"/>
    <vehicle id="EW_213" type="typeWE" route="EW" depart="279" departLane="random"/>
    <vehicle id="NS_214" type="typeWE" route="NS" depart="279" departLane="random" color="1,0,0"/>
    <vehicle id="EW_215" type="typeWE" route="EW" depart="280" departLane="random"/>
    <vehicle id="SNW_216" type="typeWE" route="SNW" depart="280" departLane="random" color="1,0,0"/>
    <vehicle id="SNW_217" type="typeWE" route="SNW" depart="281" departLane="random" color="1,0,0"/>
    <vehicle id="WE_218" type="typeWE" route="WE" depart="283" departLane="random"/>
    <vehicle id="WEN_219" type="typeWE" route="WEN" depart="283" departLane="random"/>
    <vehicle id="EW_220" type="typeWE" route="EW" depart="284" departLane="random"/>
    <vehicle id="WEN_221" type="typeWE" route="WEN" depart="285" departLane="random"/>
    <vehicle id="NSE_222" type="typeWE" route="NSE" depart="286" departLane="random" color="1,0,0"/>
    <vehicle id="WE_223" type="typeWE" route="WE" depart="287" departLane="random"/>
    <vehicle id="NS_224" type="typeWE" route="NS" depart="287" departLane="random" color="1,0,0"/>
    <vehicle id="WE_225" type="typeWE" route="WE" depart="288" departLane="random"/>
    <vehicle id="WE_226" type="typeWE" route="WE" depart="289" departLane="random"/>
    <vehicle id="SNW_227" type="typeWE" route="SNW" depart="289" departLane="random" color="1,0,0"/>
    <vehicle id="EW_228" type="typeWE" route="EW" depart="291" departLane="random"/>
    <vehicle id="EW_229" type="typeWE" route="EW" depart="295" departLane="random"/>
    <vehicle id="NS_230" type="typeWE" route="NS" depart="300" departLane="random" color="1,0,0"/>
    <vehicle id="SN_231" type="typeWE" route="SN" depart="300" departLane="random" color="1,0,0"/>
    <vehicle id="SNW_232" type="typeWE" route="SNW" depart="301" departLane="random" color="1,0,0"/>
    <vehicle id="EW_233" type="typeWE" route="EW" depart="302" departLane="random"/>
    <vehicle id="WE_234" type="typeWE" route="WE" depart="303" departLane="random"/>
    <vehicle id="NSE_235" type="typeWE" route="NSE" depart="303" departLane="random" color="1,0,0"/>
    <vehicle id="WE_236" type="typeWE" route="WE" depart="305" departLane="random"/>
    <vehicle id="NSE_237" type="typeWE" route="NSE" depart="305" departLane="random" color="1,0,0"/>
    <vehicle id="NS_238" type="typeWE" route="NS" depart="306" departLane="random" color="1,0,0"/>
    <vehicle id="SN_239" type="typeWE" route="SN" depart="306" departLane="random" color="1,0,0"/>
    <vehicle id="WE_240" type="typeWE" route="WE" depart="308" departLane="random"/>
    <vehicle id="WE_241" type="typeWE" route="WE" depart="309" departLane="random"/>
    <vehicle id="EW_242" type="typeWE" route="EW" depart="309" departLane="random"/>
    <vehicle id="NS_243" type="typeWE" route="NS" depart="310" departLane="random" color="1,0,0"/>
    <vehicle id="WE_244" type="typeWE" route="WE" depart="313" departLane="random"/>
    <vehicle id="EW_245" type="typeWE" route="EW" depart="313" departLane="random"/>
    <vehicle id="WE_246" type="typeWE" route="WE" depart="315" departLane="random"/>
    <vehicle id="WE_247" type="typeWE" route="WE" depart="316" departLane="random"/>
    <vehicle id="EW_248" type="typeWE" route="EW" depart="317" departLane="random"/>
    <vehicle id="WE_249" type="typeWE" route="WE" depart="318" departLane="random"/>
    <vehicle id="WE_250" type="typeWE" route="WE" depart="320" departLane="random"/>
    <vehicle id="EW_251" type="typeWE" route="EW" depart="320" departLane="random"/>
    <vehicle id="WEN_252" type="typeWE" route="WEN" depart="324" departLane="random"/>
    <vehicle id="EWS_253" type="typeWE" route="EWS" depart="325" departLane="random"/>
    <vehicle id="NSE_254" type="typeWE" route="NSE" depart="325" departLane="random" color="1,0,0"/>
    <vehicle id="EW_255" type="typeWE" route="EW" depart="327" departLane="random"/>
    <vehicle id="EWS_256" type="typeWE" route="EWS" depart="332" departLane="random"/>
    <vehicle id="WEN_257" type="typeWE" route="WEN" depart="337" departLane="random"/>
    <vehicle id="EW_258" type="typeWE" route="EW" depart="338" departLane="random"/>
    <vehicle id="WE_259" type="typeWE" route="WE" depart="340" departLane="random"/>
    <vehicle id="WEN_260" type="typeWE" route="WEN" depart="341" departLane="random"/>
    <vehicle id="SN_261" type="typeWE" route="SN" depart="341" departLane="random" color="1,0,0"/>
    <vehicle id="WE_262" type="typeWE" route="WE" depart="342" departLane="random"/>
    <vehicle id="WE_263" type="typeWE" route="WE" depart="347" departLane="random"/>
    <vehicle id="SNW_264" type="typeWE" route="SNW" depart="347" departLane="random" color="1,0,0"/>
    <vehicle id="EW_265" type="typeWE" route="EW" depart="348" departLane="random"/>
    <vehicle id="EWS_266" type="typeWE" route="EWS" depart="348" departLane="random"/>
    <vehicle id="SNW_267" type="typeWE" route="SNW" depart="351" departLane="random" color="1,0,0"/>
    <vehicle id="SNW_268" type="typeWE" route="SNW" depart="352" departLane="random" color="1,0,0"/>
    <vehicle id="WEN_269" type="typeWE" route="WEN" depart="353" departLane="random"/>
    <vehicle id="EW_270" type="typeWE" route="EW" depart="353" departLane="random"/>
    <vehicle id="WE_271" type="typeWE" route="WE" depart="354" departLane="random"/>
    <vehicle id="WE_272" type="typeWE" route="WE" depart="359" departLane="random"/>
    <vehicle id="NS_273" type="typeWE" route="NS" depart="365" departLane="random" color="1,0,0"/>
    <vehicle id="EW_274" type="typeWE" route="EW" depart="367" departLane="random"/>
    <vehicle id="SN_275" type="typeWE" route="SN" depart="369" departLane="random" color="1,0,0"/>
    <vehicle id="EWS_276" type="typeWE" route="EWS" depart="370" departLane="random"/>
    <vehicle id="WE_277" type="typeWE" route="WE" depart="374" departLane="random"/>
    <vehicle id="WEN_278" type="typeWE" route="WEN" depart="374" departLane="random"/>
    <vehicle id="EW_279" type="typeWE" route="EW" depart="374" departLane="random"/>
    <vehicle id="NS_280" type="typeWE" route="NS" depart="374" departLane="random" color="1,0,0"/>
    <vehicle id="WEN_281" type="typeWE" route="WEN" depart="378" departLane="random"/>
    <vehicle id="EWS_282" type="typeWE" route="EWS" depart="381" departLane="random"/>
    <vehicle id="WE_283" type="typeWE" route="WE" depart="383" departLane="random"/>
    <vehicle id="EWS_284" type="typeWE" route="EWS" depart="383" departLane="random"/>
    <vehicle id="SN_285" type="typeWE" route="SN" depart="383" departLane="random" color="1,0,0"/>
    <vehicle id="EW_286" type="typeWE" route="EW" depart="384" departLane="random"/>
    <vehicle id="EW_287" type="typeWE" route="EW" depart="385" departLane="random"/>
    <vehicle id="WEN_288" type="typeWE" route="WEN" depart="386" departLane="random"/>
    <vehicle id="EW_289" type="typeWE" route="EW" depart="386" departLane="random"/>
    <vehicle id="WE_290" type="typeWE" route="WE" depart="387" departLane="random"/>
    <vehicle id="SNW_291" type="typeWE" route="SNW" depart="387" departLane="random" color="1,0,0"/>
    <vehicle id="WE_292" type="typeWE" route="WE" depart="389" departLane="random"/>
    <vehicle id="EW_293" type="typeWE" route="EW" depart="389" departLane="random"/>
    <vehicle id="EW_294" type="typeWE" route="EW" depart="390" departLane="random"/>
    <vehicle id="WE_295" type="typeWE" route="WE" depart="391" departLane="random"/>
    <vehicle id="WE_296" type="typeWE" route="WE" depart="392" departLane="random"/>
    <vehicle id="EWS_297" type="typeWE" route="EWS" depart="392" departLane="random"/>
    <vehicle id="NS_298" type="typeWE" route="NS" depart="392" departLane="random" color="1,0,0"/>
    <vehicle id="WE_299" type="typeWE" route="WE" depart="393" departLane="random"/>
    <vehicle id="NS_300" type="typeWE" route="NS" depart="393" departLane="random" color="1,0,0"/>
    <vehicle id="EW_301" type="typeWE" route="EW" depart="397" departLane="random"/>
    <vehicle id="SN_302" type="typeWE" route="SN" depart="397" departLane="random" color="1,0,0"/>
    <vehicle id="SN_303" type="typeWE" route="SN" depart="399" departLane="random" color="1,0,0"/>
    <vehicle id="SN_304" type="typeWE" route="SN" depart="401" departLane="random" color="1,0,0"/>
    <vehicle id="SN_305" type="typeWE" route="SN" depart="402" departLane="random" color="1,0,0"/>
    <vehicle id="WE_306" type="typeWE" route="WE" depart="403" departLane="random"/>
    <vehicle id="SN_307" type="typeWE" route="SN" depart="403" departLane="random" color="1,0,0"/>
    <vehicle id="WEN_308" type="typeWE" route="WEN" depart="404" departLane="random"/>
    <vehicle id="NS_309" type="typeWE" route="NS" depart="404" departLane="random" color="1,0,0"/>
    <vehicle id="WE_310" type="typeWE" route="WE" depart="408" departLane="random"/>
    <vehicle id="EW_311" type="typeWE" route="EW" depart="408" departLane="random"/>
    <vehicle id="EWS_312" type="typeWE" route="EWS" depart="408" departLane="random"/>
    <vehicle id="SN_313" type="typeWE" route="SN" depart="408" departLane="random" color="1,0,0"/>
    <vehicle id="WEN_314" type="typeWE" route="WEN" depart="410" departLane="random"/>
    <vehicle id="EW_315" type="typeWE" route="EW" depart="410" departLane="random"/>
    <vehicle id="WEN_316" type="typeWE" route="WEN" depart="411" departLane="random"/>
    <vehicle id="NSE_317" type="typeWE" route="NSE" depart="411" departLane="random" color="1,0,0"/>
    <vehicle id="WE_318" type="typeWE" route="WE" depart="414" departLane="random"/>
    <vehicle id="EW_319" type="typeWE" route="EW" depart="414" departLane="random"/>
    <vehicle id="SN_320" type="typeWE" route="SN" depart="415" departLane="random" color="1,0,0"/>
    <vehicle id="EW_321" type="typeWE" route="EW" depart="416" departLane="random"/>
    <vehicle id="WE_322" type="typeWE" route="WE" depart="417" departLane="random"/>
    <vehicle id="EW_323" type="typeWE" route="EW" depart="417" departLane="random"/>
    <vehicle id="EW_324" type="typeWE" route="EW" depart="420" departLane="random"/>